Version 4
SHEET 1 880 680
WIRE -288 -368 -464 -368
WIRE 656 -320 432 -320
WIRE -464 -304 -464 -368
WIRE 656 -272 656 -320
WIRE -464 -176 -464 -224
WIRE 656 -128 656 -192
WIRE 656 0 656 -48
WIRE 96 112 16 112
WIRE 432 112 432 -320
WIRE 432 112 320 112
WIRE 16 128 16 112
WIRE 96 176 -128 176
WIRE 656 176 656 80
WIRE 656 176 320 176
WIRE -208 240 -288 240
WIRE 96 240 -208 240
WIRE 496 240 320 240
WIRE 656 272 656 176
WIRE -208 304 -208 240
WIRE 96 304 -16 304
WIRE -208 416 -208 368
WIRE 496 416 496 240
WIRE 576 416 496 416
WIRE 656 416 656 352
WIRE 656 416 576 416
WIRE 656 448 656 416
WIRE -208 560 -208 496
WIRE 656 560 656 512
FLAG 16 128 0
FLAG 656 560 0
FLAG 432 -320 Vcc
FLAG -464 -176 0
FLAG -288 -368 Vcc
FLAG -208 560 0
FLAG -16 304 Vcc
FLAG -128 176 Trg
FLAG 576 416 Trg
SYMBOL Misc\\NE555 208 208 R0
SYMATTR InstName U1
SYMBOL res 640 -144 R0
SYMATTR InstName R1
SYMATTR Value 10MEG
SYMATTR SpiceLine tol=1% pwr=0.125
SYMBOL res 640 256 R0
SYMATTR InstName R2
SYMATTR Value 750k
SYMATTR SpiceLine tol=1% pwr=0.125
SYMBOL cap 640 448 R0
SYMATTR InstName C1
SYMATTR Value 1µ
SYMBOL LED -224 304 R0
SYMATTR InstName D1
SYMBOL res -224 400 R0
SYMATTR InstName R3
SYMATTR Value 400
SYMATTR SpiceLine tol=1% pwr=0.125
SYMBOL voltage -464 -320 R0
WINDOW 123 0 0 Left 2
WINDOW 39 0 0 Left 2
SYMATTR InstName V1
SYMATTR Value 5
SYMBOL res 640 -16 R0
SYMATTR InstName R4
SYMATTR Value 10MEG
SYMATTR SpiceLine tol=1% pwr=0.125
SYMBOL res 640 -288 R0
SYMATTR InstName R5
SYMATTR Value 10MEG
SYMATTR SpiceLine tol=1% pwr=0.125
TEXT -496 584 Left 2 !.tran 0 300 0 1 startup
